LAMMPS (23 Jun 2022 - Update 4)
####################################################
# EXAMPLE for using the OCTP plugin
# Transport properties of an equimolar mixture of
# water-methanol at 298 K and 1 atm.
#################### SETTING UP ####################
units real
dimension 3
newton on
boundary p p p
atom_style full

#################### VARIABLES ####################
variable Temp equal 298       # Temperature in K
variable Pres equal 1.0       # Pressure in atm.

variable MolMass equal 25.028 # Average molar mass (kg/kmol)
variable MolAtom equal 3      # Number of atoms in a molecule

variable RandomSeed equal 123 # The random seed for velocity
variable tstep equal 1.0      # 1fs
variable Ninptpre equal 10000 # Pre-initialize the NPT ensemble (very small timesteps)
variable Ninpt equal 50000    # Initialize the NPT ensemble
variable Npnpt equal 100000   # Production in the NPT ensemble (volume)
variable Ninvtpre equal 10000 # Pre-initialize the NVT ensemble (very small timesteps)
variable Ninvt equal 50000    # Initialize the NVT ensemble
variable Npnvt equal 100000   # Production in the NVT ensemble (energy)
variable Nrun equal 1000000   # production in the NVE ensemble
variable Nf equal 10000       # Nfreq (fix ave/time and thermo)
variable Ne equal  10         # Nevery (fix ave/time)
variable Nr equal 10000/10
variable NBR equal 100000/5
variable Nd equal 100000/10

variable nb equal 10          # Number of blocks (fix ordern)
variable nbe equal 20         # Number of block elements (fix ordern)
variable Nvisc equal 5        # Nevery for viscosity (fix ordern: sample data at (Nvisc*2))
variable Ncond equal 5        # Nevery for Tconductivity (fix ordern: sample data at (Ncond*2))
variable Ndiff equal 1000     # Nevery for diffusivity (fix ordern: sample data at (Ndiff))
variable Nwrit equal 100000   # Nwrite for transport properties (fix ordern: write every (Nwrit))

variable Nrdfe equal 100      # Nevery for RDF (fix ave/time)
variable Nrdfw equal 1000     # Nwrite for RDF (compute rdf/ext: write every (Nrdfw*Nrdfe))
variable binnum equal 2000    # Number of bins for RDF

#################### ATOM DEFINITION and FORCEFIELD ####################
read_data ./input_data.system                     # read the positions
Reading data file ...
  orthogonal box = (-1.499499 -1.494 -1.498) to (31.500501 31.506 31.502)
  reading atoms ...
  1500 atoms
  scanning bonds ...
  scanning angles ...
  reading bonds ...
  1000 bonds
  reading angles ...
  500 angles
Finding 1-2 1-3 1-4 neighbors ...
     2 = max # of 1-2 neighbors
     1 = max # of 1-3 neighbors
     1 = max # of 1-4 neighbors
     2 = max # of special neighbors
include input_forcefield.data                     # read the force field
#################### FORCE FIELDS ####################
pair_style lj/cut/coul/long 10.0
pair_modify mix arithmetic tail yes # ATC + Lorentz-Berthelot
kspace_style pppm 1e-6
bond_style harmonic
angle_style harmonic
dihedral_style none
improper_style none
#special_bonds lj 0.0 0.0 0.0 coul 0.0 0.0 0.0 dihedral no

# Pair Coeffs
#
# 1  C3
# 2  H
# 3  Hw
# 4  O
# 5  Ow
pair_coeff 1 1 0.19475 3.75
pair_coeff 2 2 0.0 0.0
pair_coeff 3 3 0.0 0.0
pair_coeff 4 4 0.18481 3.02
pair_coeff 5 5 0.15535 3.166

# Bond Coeffs
#
# 1  C3-O
# 2  H-O
# 3  Hw-Ow
bond_coeff 1 1000.0 1.430 	#shake
bond_coeff 2 1000.0 0.945	#shake
bond_coeff 3 1000.0 1.000	#shake

# Angle Coeffs
#
# 1  C3-O-H
# 2  Hw-Ow-Hw
angle_coeff 1 55.0  108.5
angle_coeff 2 100.0 109.47	#shake

# Charges of the atoms
#
# 1  C3
# 2  H
# 3  Hw
# 4  O
# 5  Ow
set type 1 charge +0.265	# TraPPE
Setting atom values ...
  250 settings made for charge
set type 2 charge +0.435	# TraPPE
Setting atom values ...
  250 settings made for charge
set type 3 charge +0.4238	# SPC/E
Setting atom values ...
  500 settings made for charge
set type 4 charge -0.700	# TraPPE
Setting atom values ...
  250 settings made for charge
set type 5 charge -0.8476	# SPC/E
Setting atom values ...
  250 settings made for charge

#################### INITIALIZATION ####################
# groups for the central atoms of water (O) and methanol (O)
group wat type 5      # The Oxygen of WATER molecules
250 atoms in group wat
group met type 4      # The Oxygen of METHANOL molecules
250 atoms in group met

# neigbor lists
neighbor 2.0 bin
neigh_modify every 1 delay 0 check yes

# velocity-Verlet integrator
run_style verlet

# minimizing the system using the conjugate gradient method
min_style cg
min_modify dmax 0.05
minimize 1.0e-6 1.0e-6 1000 10000
PPPM initialization ...
  G vector (1/distance) = 0.32821011
  grid = 40 40 40
  stencil order = 5
  estimated absolute RMS force accuracy = 0.00038414621
  estimated relative force accuracy = 1.1568449e-06
  3d grid and FFT values/proc = 9639 3200
Generated 10 of 10 mixed pair_coeff terms from arithmetic mixing rule
  update every 1 steps, delay 0 steps, check yes
Step          Temp          E_pair         E_mol          TotEng         Press
0   0             -648.95582      0.18870006    -648.76712     -109.95363
Loop time of 2.49017 on 24 procs for 1000 steps with 1500 atoms

Minimization stats:
  Stopping criterion = max iterations
  Energy initial, next-to-last, final =
  Force two-norm initial, final = 227.07219 35.261928
  Force max component initial, final = 23.089719 6.3323885
  Final line search alpha, max atom move = 0.0067388063 0.04267274
  Iterations, force evaluations = 1000 1855

reset_timestep 0

# initializing velocities
velocity all create 298 123

# rate of writing thermal properties to the log file
thermo 10000

#################### 1) Initialize the NPT ensemble ####################
# applying the shake algorithm for rigid molecules and the NPT solver
fix constrain all shake 1.0e-6 1000 0 b 1 2 3 a 2
       0 = # of size 2 clusters
     250 = # of size 3 clusters
       0 = # of size 4 clusters
     250 = # of frozen angles
  find clusters CPU = 0.000 seconds
fix integrate all npt temp 298 298 10.0 iso 1 1 100.0

# Initializing the whole system with very small timesteps in the NPT ensemble
timestep 0.001
run 10000
PPPM initialization ...
  G vector (1/distance) = 0.32821011
  grid = 40 40 40
  stencil order = 5
  estimated absolute RMS force accuracy = 0.00038414621
  estimated relative force accuracy = 1.1568449e-06
  3d grid and FFT values/proc = 9639 3200
Generated 10 of 10 mixed pair_coeff terms from arithmetic mixing rule
Step          Temp          E_pair         E_mol          TotEng         Press          Volume
0   412.72128     -5720.5665      13.035173     -4375.9975     -55025.301      35937
Loop time of 18.2808 on 24 procs for 10000 steps with 1500 atoms

timestep 0.01
run 10000
PPPM initialization ...
  G vector (1/distance) = 0.3282662
  grid = 40 40 40
  stencil order = 5
  estimated absolute RMS force accuracy = 0.00038316901
  estimated relative force accuracy = 1.1539021e-06
  3d grid and FFT values/proc = 9639 3200
Generated 10 of 10 mixed pair_coeff terms from arithmetic mixing rule
Step          Temp          E_pair         E_mol          TotEng         Press          Volume
10000   221.46541     -5145.0533      27.691717     -4402.8632     -110273         35838.364
Loop time of 18.2658 on 24 procs for 10000 steps with 1500 atoms

timestep 0.1
run 10000
PPPM initialization ...
  G vector (1/distance) = 0.32871884
  grid = 40 40 40
  stencil order = 5
  estimated absolute RMS force accuracy = 0.00037534969
  estimated relative force accuracy = 1.1303544e-06
  3d grid and FFT values/proc = 9639 3200
Generated 10 of 10 mixed pair_coeff terms from arithmetic mixing rule
Step          Temp          E_pair         E_mol          TotEng         Press          Volume
20000   295.36864     -4577.9464      70.277769     -3554.7414     -8610.6786      35046.758
Loop time of 18.658 on 24 procs for 10000 steps with 1500 atoms

timestep 0.2
run 10000
PPPM initialization ...
  G vector (1/distance) = 0.33500824
  grid = 40 40 40
  stencil order = 5
  estimated absolute RMS force accuracy = 0.00028629632
  estimated relative force accuracy = 8.6217286e-07
  3d grid and FFT values/proc = 9639 3200
Generated 10 of 10 mixed pair_coeff terms from arithmetic mixing rule
Step          Temp          E_pair         E_mol          TotEng         Press          Volume
30000   300.07746     -4808.331       59.070722     -3781.1413     -7940.9816      26703.164
Loop time of 19.1731 on 24 procs for 10000 steps with 1500 atoms

timestep 0.5
run 10000
PPPM initialization ...
  G vector (1/distance) = 0.33016179
  grid = 36 36 36
  stencil order = 5
  estimated absolute RMS force accuracy = 0.00041439368
  estimated relative force accuracy = 1.2479343e-06
  3d grid and FFT values/proc = 7600 2592
Generated 10 of 10 mixed pair_coeff terms from arithmetic mixing rule
Step          Temp          E_pair         E_mol          TotEng         Press          Volume
40000   304.83813     -4959.674       64.895497     -3911.3005      3321.8191      24164.78
Loop time of 16.1862 on 24 procs for 10000 steps with 1500 atoms

reset_timestep 0

# continuing the initialization with the final value of timestep
unfix integrate
fix integrate all npt temp 298 298 100.0 iso 1 1 1000.0

timestep 1
run 50000
PPPM initialization ...
  G vector (1/distance) = 0.33033458
  grid = 36 36 36
  stencil order = 5
  estimated absolute RMS force accuracy = 0.00041119177
  estimated relative force accuracy = 1.2382918e-06
  3d grid and FFT values/proc = 7600 2592
Generated 10 of 10 mixed pair_coeff terms from arithmetic mixing rule
Step          Temp          E_pair         E_mol          TotEng         Press          Volume
0   293.3699      -5100.7939      86.5904       -4067.7247     -172.42089      23967.092
Loop time of 82.9996 on 24 procs for 50000 steps with 1500 atoms

reset_timestep 0

#################### 2) Obtaining average volume in NPT ######################
# Getting the average volume of the system
variable Volume equal vol
fix VoluAve all ave/time 1 100000 100000 v_Volume file volume.dat

# Getting the average density of the system (block averaging)
variable nAvog equal 6.0221415e26              # Avogadro's number
variable A3_in_m3 equal 1e-30                  # Angstrom^3 in m^3
variable nMolecule equal atoms/3
variable mMolecule equal (25.028/6.0221415e+26)
variable Dens equal v_nMolecule*4.15599666663429e-26/(vol*1e-30)
fix DensAve all ave/time 1 20000 20000 v_Dens file density.dat

run 100000
PPPM initialization ...
  G vector (1/distance) = 0.33060907
  grid = 36 36 36
  stencil order = 5
  estimated absolute RMS force accuracy = 0.00040614188
  estimated relative force accuracy = 1.2230842e-06
  3d grid and FFT values/proc = 7600 2592
Generated 10 of 10 mixed pair_coeff terms from arithmetic mixing rule
Step          Temp          E_pair         E_mol          TotEng         Press          Volume
0   302.86913     -5103.0141      100.17726     -4025.7113      435.63977      23654.527
Averages over the last 6 of 11 rows, steps 50000 to 100000:
Temp E_pair E_mol TotEng Press Volume
295.378 -5069.5 82.5234 -4034.02 232.891 24019.8
Loop time of 165.618 on 24 procs for 100000 steps with 1500 atoms

#################### 3) Initializing the NVT ensemble ####################
# scaling the size of the system to the average volume
variable sidesize equal (f_VoluAve^(1.0/3.0))    # get the volume
variable xlow equal xlo
variable ylow equal ylo
variable zlow equal zlo
variable xhig equal (xlo+28.7437096715559)
variable yhig equal (ylo+28.7437096715559)
variable zhig equal (zlo+28.7437096715559)
change_box all x final 0.601357327136609 29.3450669986925 y final 0.60685632713661 29.3505659986925 z final 0.602856327136612 29.3465659986925
Changing box ...
  orthogonal box = (0.60135733 0.60685633 0.60285633) to (29.345067 29.405144 29.401144)
  orthogonal box = (0.60135733 0.60685633 0.60285633) to (29.345067 29.350566 29.401144)
  orthogonal box = (0.60135733 0.60685633 0.60285633) to (29.345067 29.350566 29.346566)
unfix DensAve
unfix VoluAve

# changing the ensemble to NVT
unfix integrate
fix integrate all nvt temp 298 298 100.0

reset_timestep 0

# Initializing the whole system with very small timesteps in the NVT ensemble
timestep 0.001
run 10000
PPPM initialization ...
  G vector (1/distance) = 0.33052675
  grid = 36 36 36
  stencil order = 5
  estimated absolute RMS force accuracy = 0.00040765167
  estimated relative force accuracy = 1.2276309e-06
  3d grid and FFT values/proc = 7600 2592
Generated 10 of 10 mixed pair_coeff terms from arithmetic mixing rule
Step          Temp          E_pair         E_mol          TotEng         Press
0   301.92778     -5022.9732      79.037529     -3969.8472     -114576.52
Loop time of 11.8796 on 24 procs for 10000 steps with 1500 atoms

timestep 0.01
run 10000
PPPM initialization ...
  G vector (1/distance) = 0.33052675
  grid = 36 36 36
  stencil order = 5
  estimated absolute RMS force accuracy = 0.00040765167
  estimated relative force accuracy = 1.2276309e-06
  3d grid and FFT values/proc = 7600 2592
Generated 10 of 10 mixed pair_coeff terms from arithmetic mixing rule
Step          Temp          E_pair         E_mol          TotEng         Press
10000   308.55706     -5077.1353      82.114243     -3999.545       702.19762
Loop time of 11.7694 on 24 procs for 10000 steps with 1500 atoms

timestep 0.1
run 10000
PPPM initialization ...
  G vector (1/distance) = 0.33052675
  grid = 36 36 36
  stencil order = 5
  estimated absolute RMS force accuracy = 0.00040765167
  estimated relative force accuracy = 1.2276309e-06
  3d grid and FFT values/proc = 7600 2592
Generated 10 of 10 mixed pair_coeff terms from arithmetic mixing rule
Step          Temp          E_pair         E_mol          TotEng         Press
20000   307.62824     -5111.4975      77.998084     -4041.02        199.28127
Loop time of 12.0782 on 24 procs for 10000 steps with 1500 atoms

timestep 0.2
run 10000
PPPM initialization ...
  G vector (1/distance) = 0.33052675
  grid = 36 36 36
  stencil order = 5
  estimated absolute RMS force accuracy = 0.00040765167
  estimated relative force accuracy = 1.2276309e-06
  3d grid and FFT values/proc = 7600 2592
Generated 10 of 10 mixed pair_coeff terms from arithmetic mixing rule
Step          Temp          E_pair         E_mol          TotEng         Press
30000   294.21015     -5163.0946      82.762284     -4131.1427     -722.46372
Loop time of 12.2889 on 24 procs for 10000 steps with 1500 atoms

timestep 0.5
run 10000
PPPM initialization ...
  G vector (1/distance) = 0.33052675
  grid = 36 36 36
  stencil order = 5
  estimated absolute RMS force accuracy = 0.00040765167
  estimated relative force accuracy = 1.2276309e-06
  3d grid and FFT values/proc = 7600 2592
Generated 10 of 10 mixed pair_coeff terms from arithmetic mixing rule
Step          Temp          E_pair         E_mol          TotEng         Press
40000   293.15608     -5119.4883      76.54017      -4097.1592     -335.27291
Loop time of 12.3523 on 24 procs for 10000 steps with 1500 atoms

reset_timestep 0

# continuing the initialization with the final value of timestep
timestep 1
run 50000
PPPM initialization ...
  G vector (1/distance) = 0.33052675
  grid = 36 36 36
  stencil order = 5
  estimated absolute RMS force accuracy = 0.00040765167
  estimated relative force accuracy = 1.2276309e-06
  3d grid and FFT values/proc = 7600 2592
Generated 10 of 10 mixed pair_coeff terms from arithmetic mixing rule
Step          Temp          E_pair         E_mol          TotEng         Press
0   296.23722     -5112.6719      75.915769     -4081.0267     -115.43654
Loop time of 62.4812 on 24 procs for 50000 steps with 1500 atoms

reset_timestep 0

#################### 4) Obtaining average total energy in NVT #####################
variable T1 equal temp
variable TE1 equal etotal
variable KE1 equal ke
variable PE1 equal pe
fix Tave1 all ave/time 100000 1 100000 v_T1
fix TEave1 all ave/time 1 100000 100000 v_TE1
fix KEave1 all ave/time 100000 1 100000 v_KE1
fix PEave1 all ave/time 100000 1 100000 v_PE1

dump trjectory all xyz 10000 movie.xyz
dump_modify trjectory element C H H O O

run 100000
PPPM initialization ...
  G vector (1/distance) = 0.33052675
  grid = 36 36 36
  stencil order = 5
  estimated absolute RMS force accuracy = 0.00040765167
  estimated relative force accuracy = 1.2276309e-06
  3d grid and FFT values/proc = 7600 2592
Generated 10 of 10 mixed pair_coeff terms from arithmetic mixing rule
Step          Temp          E_pair         E_mol          TotEng         Press
0   289.34848     -5092.2403      80.979748     -4077.7558      316.14514
Averages over the last 6 of 11 rows, steps 50000 to 100000:
Temp E_pair E_mol TotEng Press
298.45 -5088.03 88.0645 -4037.1 43.4512
Loop time of 139.084 on 24 procs for 100000 steps with 1500 atoms

undump trjectory

#################### 3) Simulating in NVE ensmeble ######################
# Scaling the temperature (kinetic energy) according to the average total energy
variable TempNew equal (f_Tave1*(f_TEave1-f_PEave1)/(f_KEave1))
velocity all scale 301.569708300673

unfix Tave1
unfix TEave1
unfix KEave1
unfix PEave1
variable T1 delete
variable TE1 delete
variable KE1 delete
variable PE1 delete
variable TempNew delete

# changing the ensemble to NVE
unfix integrate
reset_timestep 0
fix integrate all nve

# computing average total energy, pontential energy, temperature, and pressure over time
variable TotEn equal etotal
fix TEAve all ave/time 10 1000 10000 v_TotEn file TotalE.dat

variable PotEn equal pe
fix PEAve all ave/time 10 1000 10000 v_PotEn file PotenE.dat

compute T all temp
fix TempAve all ave/time 10 1000 10000 c_T file temperature.dat

compute P all pressure T
fix PressAve all ave/time 10 1000 10000 c_P file pressure.dat

# computing self-diffusion and Onsager coefficients using the OCTP plugin
compute positions all position
fix f3 all ordern diffusivity 1000 100000 c_positions nb 10 nbe 20 file diffself.dat diffonsag.dat title "Equimolar mixture of water-methanol at 298 K and 1 atm"

# computing shear and bulk viscosities  using the OCTP plugin
fix f1 all ordern viscosity 5 100000 c_P nb 10 nbe 20 file viscosity.dat title "Equimolar mixture of water-methanol at 298 K and 1 atm"

# computing thermal conductivity using the OCTP plugin
compute KE all ke/atom
compute PE all pe/atom
compute ST all stress/atom NULL virial
compute heatflux all heat/flux KE PE ST
fix f2 all ordern thermalconductivity 5 100000 c_heatflux nb 10 nbe 20 file tconductivity.dat title "Equimolar mixture of water-methanol at 298 K and 1 atm"

# computing the RDF for all group pairs
compute rdfs all rdf/ext Nbin 2000 Nwrite 1000 file rdf.dat
fix f4 all ave/time 1 1 100 c_rdfs

# Thermo style for outputing system properties to the log file
thermo_style custom step temp f_TempAve press f_PressAve pe ke etotal
thermo_modify flush yes

#thermo 1
run 1000000

CITE-CITE-CITE-CITE-CITE-CITE-CITE-CITE-CITE-CITE-CITE-CITE-CITE

Your simulation uses code contributions which should be cited:

- fix ave/ordern command:

@Article{Jamali2019,
 author = {Jamali, Seyed Hossein and Wolf, Ludger and Becker, Tim M. and de Groen, Mariëtte and Ramdin, Mahinder and Hartkamp, Remco and Bardow, André and Vlugt, Thijs J. H. and Moultos, Othonas A.},
 title = {OCTP: A Tool for On-the-Fly Calculation of Transport Properties of Fluids with the Order-n Algorithm in LAMMPS},
 doi = {10.1021/acs.jcim.8b00939},
 journal = {J. Chem. Inf. Model.},
 year = {2019},
 volume = {59},
 pages = {1290-1294}
 }

CITE-CITE-CITE-CITE-CITE-CITE-CITE-CITE-CITE-CITE-CITE-CITE-CITE

PPPM initialization ...
  G vector (1/distance) = 0.33052675
  grid = 36 36 36
  stencil order = 5
  estimated absolute RMS force accuracy = 0.00040765167
  estimated relative force accuracy = 1.2276309e-06
  3d grid and FFT values/proc = 7600 2592
Generated 10 of 10 mixed pair_coeff terms from arithmetic mixing rule
Step          Temp        f_TempAve        Press        f_PressAve       PotEng         KinEng         TotEng
0   301.56971      0              621.25523      0             -5023.3093      972.93326     -4050.376
Averages over the last 51 of 101 rows, steps 500000 to 1000000:
Temp f_TempAve Press f_PressAve PotEng KinEng TotEng
297.491 297.939 21.4688 -7.81106 -5010.18 959.774 -4050.41
Loop time of 1682.88 on 24 procs for 1000000 steps with 1500 atoms

quit
