LAMMPS (28 Mar 2023 - Update 1)
## For quicktest OCTP 2.0 (copied and adjusted from an SI of Sayeds paper)
boundary p p p
units lj
atom_style molecular

#################### VARIABLES ####################
variable COEF equal (1)                             # A multiplier for the number of particles
variable mol1 equal (250*1)
variable mol2 equal (500*1-250)

variable s11 equal 1.0                              # sigma 11
variable s22 equal 1.2                              # sigma 22
variable s12 equal (1+1.2)/2.0
variable mas1 equal 1.0                             # mass of particle 1
variable mas2 equal (1*(1.2/1)^3)
variable e11 equal 1.0                              # epsilon 11
variable e22 equal 0.8                              # epsilon 22
variable e12 equal sqrt(1*0.8)*(1.0-(-0.3))
variable rcut equal 4.0                             # cutoff radius
variable skin equal 0.5                             # verlet list parameters
variable checkbin equal 2                           # verlet list parameters

variable temp equal 0.65                            # reduced external temperature (T*)
variable volum equal 790.0560*1
variable box equal (790.056^(1.0/3.0))
variable Etotal equal -5.13404                      # Total energy of system per atom
variable dt equal 0.001                             # timestep (t*)
variable Nf equal 50000                             # frequency of sampling
variable nininvt equal 20000                        # initializing in NVT (2 damping rates)
variable nsamnvt equal 100000                       # sampling energy in NVT
variable nrun equal 1000000                         # production in NVE

variable nb equal 10                                # Number of blocks (fix ordern)
variable nbe equal 20                               # Number of block elements (fix ordern)
variable Nvisc equal 5                              # Nevery for viscosity (fix ordern: sample data at (Nvisc*2))
variable Ncond equal 5                              # Nevery for Tconductivity (fix ordern: sample data at (Ncond*2))
variable Ndiff equal 1000                           # Nevery for diffusivity (fix ordern: sample data at (Ndiff))
variable Nwrit equal 100000                         # Nwrite for transport properties (fix ordern: write every (Nwrit))

variable random_V equal 2234                        # the random seed to initialize velocities
variable random_m1 equal 223                        # the random seed to create LJ species 1
variable random_m2 equal 235                        # the random seed to create LJ species 2

thermo 50000

#################### FORCE FIELDS ####################
region region1 block 0 9.24455389177073 0 9.24455389177073 0 9.24455389177073
create_box 2 region1
Created orthogonal box = (0 0 0) to (9.2445539 9.2445539 9.2445539)
mass 1 1
mass 2 1.728
create_atoms 1 random 250 223 NULL
Created 250 atoms
create_atoms 2 random 250 235 NULL
Created 250 atoms
pair_style lj/cut 4
pair_modify mix arithmetic shift yes                 # shifted wo/ analytic tail correction
pair_coeff 1 1 1 1
pair_coeff 1 2 1.16275534829989 1.1
pair_coeff 2 2 0.8 1.2

#################### SETTINGS ####################
group 1 type 1
250 atoms in group 1
group 2 type 2
250 atoms in group 2
variable numgroup1 equal count(1)
variable numgroup2 equal count(2)

neighbor 0.5 bin
neigh_modify every 2 delay 0 check yes

timestep 0.001
reset_timestep 0
run_style verlet

min_style cg
minimize 1.0e-6 1.0e-6 10000 100000
Generated 0 of 1 mixed pair_coeff terms from arithmetic mixing rule
Step          Temp          E_pair         E_mol          TotEng         Press
0   0              2.5155965e+10  0              2.5155965e+10  6.368149e+10
Loop time of 0.353409 on 8 procs for 793 steps with 500 atoms

Minimization stats:
  Stopping criterion = energy tolerance
  Energy initial, next-to-last, final =
  Force two-norm initial, final = 1.9929268e+15 0.85806054
  Force max component initial, final = 1.404482e+15 0.17595838
  Final line search alpha, max atom move = 0.15072854 0.02652195
  Iterations, force evaluations = 793 1576

reset_timestep 0

#################### 1) Initializing in NVT ensemble ####################
velocity all create 0.65 2234

fix integrate all nvt temp 0.65 0.65 0.1
run 20000
Generated 0 of 1 mixed pair_coeff terms from arithmetic mixing rule
Step          Temp          E_pair         E_mol          TotEng         Press
0   0.65          -7.3188572      0             -6.3458072     -1.2725096
Loop time of 2.60494 on 8 procs for 20000 steps with 500 atoms

unfix integrate
fix integrate all nvt temp 0.65 0.65 1.0

run 20000
Generated 0 of 1 mixed pair_coeff terms from arithmetic mixing rule
Step          Temp          E_pair         E_mol          TotEng         Press
20000   0.68420222    -6.1339127      0             -5.109662       0.022929381
Loop time of 2.56551 on 8 procs for 20000 steps with 500 atoms

reset_timestep 0

#################### 2) Equilibrating in NVT ensemble #####################

# Temperature of last configuration
variable T1 equal temp
fix Tave1 all ave/time 100000 1 100000 v_T1

# Kinetic energy of last configuration
variable KE1 equal ke
fix KEave1 all ave/time 100000 1 100000 v_KE1

# Potential energy of last configuration
variable PE1 equal pe
fix PEave1 all ave/time 100000 1 100000 v_PE1

run 100000
Generated 0 of 1 mixed pair_coeff terms from arithmetic mixing rule
Step          Temp          E_pair         E_mol          TotEng         Press
0   0.61063587    -6.1508017      0             -5.2366798     -0.17337607
Loop time of 12.7449 on 8 procs for 100000 steps with 500 atoms

# Rescale temperature to create NVE initial set NVE
variable TempNew equal (f_Tave1*(-5.13404-f_PEave1)/(f_KEave1))
velocity all scale 0.669321677933304

variable TempNew delete
variable T1 delete
unfix Tave1
variable KE1 delete
unfix KEave1
variable PE1 delete
unfix PEave1
unfix integrate

reset_timestep 0

#################### 3) Simulating in NVE ensmeble ######################
#################### Here we sample the OCTP data ######################
fix integrate all nve  # set to NVE

# computing shear and bulk viscosities  using the OCTP plugin
compute T all temp
compute P all pressure T
fix f1 all ordern viscosity 5 100000 c_P nb 10 nbe 20 file viscosity.dat title "Testheader viscosity"

compute KE all ke/atom
compute PE all pe/atom
compute ST all stress/atom NULL virial
compute heatflux all heat/flux KE PE ST
fix f2 all ordern thermalconductivity 5 100000 c_heatflux nb 10 nbe 20 file tconductivity.dat title "Testheader thermal conductivity"

# do compute positions for diffusion and Onsager coefficients
compute positions all position
fix f3 all ordern diffusivity 1000 100000 c_positions nb 10 nbe 20 file diffself.dat diffonsag.dat title "Testheader diffusion and onsager coefficients"

# and now we run it while sampling OCTP
run 1000000

CITE-CITE-CITE-CITE-CITE-CITE-CITE-CITE-CITE-CITE-CITE-CITE-CITE

Your simulation uses code contributions which should be cited:

- fix ave/ordern command:

@Article{Jamali2019,
 author = {Jamali, Seyed Hossein and Wolf, Ludger and Becker, Tim M. and de Groen, Mariëtte and Ramdin, Mahinder and Hartkamp, Remco and Bardow, André and Vlugt, Thijs J. H. and Moultos, Othonas A.},
 title = {OCTP: A Tool for On-the-Fly Calculation of Transport Properties of Fluids with the Order-n Algorithm in LAMMPS},
 doi = {10.1021/acs.jcim.8b00939},
 journal = {J. Chem. Inf. Model.},
 year = {2019},
 volume = {59},
 pages = {1290-1294}
 }

CITE-CITE-CITE-CITE-CITE-CITE-CITE-CITE-CITE-CITE-CITE-CITE-CITE

Generated 0 of 1 mixed pair_coeff terms from arithmetic mixing rule
Step          Temp          E_pair         E_mol          TotEng         Press
0   0.66932168    -6.1360146      0             -5.13404       -0.075295127
Averages over the last 11 of 21 rows, steps 500000 to 1000000:
Temp E_pair E_mol TotEng Press
0.648331 -6.10459 0 -5.13404 0.0686403
Loop time of 170.719 on 8 procs for 1000000 steps with 500 atoms

quit
